2244
  -OEChem-06292504332D

 21 21  0     0  0  0  0  0  0999 V2000
    3.7321   -0.0600    0.0000 O   0  0  0  0  0  0  0  0  0  0  0  0
    6.3301    1.4400    0.0000 O   0  0  0  0  0  0  0  0  0  0  0  0
    4.5981    1.4400    0.0000 O   0  0  0  0  0  0  0  0  0  0  0  0
    2.8660   -1.5600    0.0000 O   0  0  0  0  0  0  0  0  0  0  0  0
    4.5981   -0.5600    0.0000 C   0  0  0  0  0  0  0  0  0  0  0  0
    5.4641   -0.0600    0.0000 C   0  0  0  0  0  0  0  0  0  0  0  0
    4.5981   -1.5600    0.0000 C   0  0  0  0  0  0  0  0  0  0  0  0
    6.3301   -0.5600    0.0000 C   0  0  0  0  0  0  0  0  0  0  0  0
    5.4641   -2.0600    0.0000 C   0  0  0  0  0  0  0  0  0  0  0  0
    6.3301   -1.5600    0.0000 C   0  0  0  0  0  0  0  0  0  0  0  0
    5.4641    0.9400    0.0000 C   0  0  0  0  0  0  0  0  0  0  0  0
    2.8660   -0.5600    0.0000 C   0  0  0  0  0  0  0  0  0  0  0  0
    2.0000   -0.0600    0.0000 C   0  0  0  0  0  0  0  0  0  0  0  0
    4.0611   -1.8700    0.0000 H   0  0  0  0  0  0  0  0  0  0  0  0
    6.8671   -0.2500    0.0000 H   0  0  0  0  0  0  0  0  0  0  0  0
    5.4641   -2.6800    0.0000 H   0  0  0  0  0  0  0  0  0  0  0  0
    6.8671   -1.8700    0.0000 H   0  0  0  0  0  0  0  0  0  0  0  0
    2.3100    0.4769    0.0000 H   0  0  0  0  0  0  0  0  0  0  0  0
    1.4631    0.2500    0.0000 H   0  0  0  0  0  0  0  0  0  0  0  0
    1.6900   -0.5969    0.0000 H   0  0  0  0  0  0  0  0  0  0  0  0
    6.3301    2.0600    0.0000 H   0  0  0  0  0  0  0  0  0  0  0  0
  1  5  1  0  0  0  0
  1 12  1  0  0  0  0
  2 11  1  0  0  0  0
  2 21  1  0  0  0  0
  3 11  2  0  0  0  0
  4 12  2  0  0  0  0
  5  6  1  0  0  0  0
  5  7  2  0  0  0  0
  6  8  2  0  0  0  0
  6 11  1  0  0  0  0
  7  9  1  0  0  0  0
  7 14  1  0  0  0  0
  8 10  1  0  0  0  0
  8 15  1  0  0  0  0
  9 10  2  0  0  0  0
  9 16  1  0  0  0  0
 10 17  1  0  0  0  0
 12 13  1  0  0  0  0
 13 18  1  0  0  0  0
 13 19  1  0  0  0  0
 13 20  1  0  0  0  0
M  END
> <PUBCHEM_COMPOUND_CID>
2244

> <PUBCHEM_COMPOUND_CANONICALIZED>
1

> <PUBCHEM_CACTVS_COMPLEXITY>
212

> <PUBCHEM_CACTVS_HBOND_ACCEPTOR>
4

> <PUBCHEM_CACTVS_HBOND_DONOR>
1

> <PUBCHEM_CACTVS_ROTATABLE_BOND>
3

> <PUBCHEM_CACTVS_SUBSKEYS>
AAADccBwOAAAAAAAAAAAAAAAAAAAAAAAAAAwAAAAAAAAAAABAAAAGgAACAAADASAmAAyDoAABgCIAiDSCAACCAAkIAAIiAEGCMgMJzaENRqCe2Cl4BEIuYeIyCCOAAAAAAAIAAAAAAAAABAAAAAAAAAAAA==

> <PUBCHEM_IUPAC_OPENEYE_NAME>
2-acetoxybenzoic acid

> <PUBCHEM_IUPAC_CAS_NAME>
2-acetyloxybenzoic acid

> <PUBCHEM_IUPAC_NAME_MARKUP>
2-acetyloxybenzoic acid

> <PUBCHEM_IUPAC_NAME>
2-acetyloxybenzoic acid

> <PUBCHEM_IUPAC_SYSTEMATIC_NAME>
2-acetyloxybenzoic acid

> <PUBCHEM_IUPAC_TRADITIONAL_NAME>
2-acetoxybenzoic acid

> <PUBCHEM_IUPAC_INCHI>
InChI=1S/C9H8O4/c1-6(10)13-8-5-3-2-4-7(8)9(11)12/h2-5H,1H3,(H,11,12)

> <PUBCHEM_IUPAC_INCHIKEY>
BSYNRYMUTXBXSQ-UHFFFAOYSA-N

> <PUBCHEM_XLOGP3>
1.2

> <PUBCHEM_EXACT_MASS>
180.04225873

> <PUBCHEM_MOLECULAR_FORMULA>
C9H8O4

> <PUBCHEM_MOLECULAR_WEIGHT>
180.16

> <PUBCHEM_OPENEYE_CAN_SMILES>
CC(=O)OC1=CC=CC=C1C(=O)O

> <PUBCHEM_OPENEYE_ISO_SMILES>
CC(=O)OC1=CC=CC=C1C(=O)O

> <PUBCHEM_CACTVS_TPSA>
63.6

> <PUBCHEM_MONOISOTOPIC_WEIGHT>
180.04225873

> <PUBCHEM_TOTAL_CHARGE>
0

> <PUBCHEM_HEAVY_ATOM_COUNT>
13

> <PUBCHEM_ATOM_DEF_STEREO_COUNT>
0

> <PUBCHEM_ATOM_UDEF_STEREO_COUNT>
0

> <PUBCHEM_BOND_DEF_STEREO_COUNT>
0

> <PUBCHEM_BOND_UDEF_STEREO_COUNT>
0

> <PUBCHEM_ISOTOPIC_ATOM_COUNT>
0

> <PUBCHEM_COMPONENT_COUNT>
1

> <PUBCHEM_CACTVS_TAUTO_COUNT>
-1

> <PUBCHEM_COORDINATE_TYPE>
1
5
255

> <PUBCHEM_BONDANNOTATIONS>
5  6  8
5  7  8
6  8  8
7  9  8
8  10  8
9  10  8

$$$$
137329
  -OEChem-06292504332D

 97100  0     0  0  0  0  0  0999 V2000
    2.2690    7.7620    0.0000 O   0  0  0  0  0  0  0  0  0  0  0  0
    0.5369   10.7620    0.0000 O   0  0  0  0  0  0  0  0  0  0  0  0
   10.9972   11.7962    0.0000 O   0  0  0  0  0  0  0  0  0  0  0  0
    9.2536   14.7895    0.0000 O   0  0  0  0  0  0  0  0  0  0  0  0
    5.3334    2.6200    0.0000 O   0  0  0  0  0  0  0  0  0  0  0  0
    7.9315    4.1200    0.0000 O   0  0  0  0  0  0  0  0  0  0  0  0
    6.1995    4.1200    0.0000 O   0  0  0  0  0  0  0  0  0  0  0  0
    4.4674    1.1200    0.0000 O   0  0  0  0  0  0  0  0  0  0  0  0
    4.8671   13.2620    0.0000 N   0  0  0  0  0  0  0  0  0  0  0  0
    6.6155    9.2274    0.0000 N   0  0  0  0  0  0  0  0  0  0  0  0
    4.0010   11.7620    0.0000 N   0  0  0  0  0  0  0  0  0  0  0  0
    7.5331   10.7412    0.0000 N   0  0  0  0  0  0  0  0  0  0  0  0
    4.8671   10.2620    0.0000 N   0  0  0  0  0  0  0  0  0  0  0  0
    6.6270   12.2967    0.0000 N   0  0  0  0  0  0  0  0  0  0  0  0
    3.1350   10.2620    0.0000 N   0  0  0  0  0  0  0  0  0  0  0  0
    8.3972   12.2861    0.0000 N   0  0  0  0  0  0  0  0  0  0  0  0
    5.7331   13.7620    0.0000 C   0  0  0  0  0  0  0  0  0  0  0  0
    4.0010   13.7620    0.0000 C   0  0  0  0  0  0  0  0  0  0  0  0
    5.7437    8.7374    0.0000 C   0  0  0  0  0  0  0  0  0  0  0  0
    7.4757    8.7174    0.0000 C   0  0  0  0  0  0  0  0  0  0  0  0
    5.7331   14.7620    0.0000 C   0  0  0  0  0  0  0  0  0  0  0  0
    4.0010   14.7620    0.0000 C   0  0  0  0  0  0  0  0  0  0  0  0
    5.7322    7.7375    0.0000 C   0  0  0  0  0  0  0  0  0  0  0  0
    7.4641    7.7175    0.0000 C   0  0  0  0  0  0  0  0  0  0  0  0
    4.8671   15.2620    0.0000 C   0  0  0  0  0  0  0  0  0  0  0  0
    6.5923    7.2275    0.0000 C   0  0  0  0  0  0  0  0  0  0  0  0
    4.8671   12.2620    0.0000 C   0  0  0  0  0  0  0  0  0  0  0  0
    6.6270   10.2273    0.0000 C   0  0  0  0  0  0  0  0  0  0  0  0
    5.7331   10.7620    0.0000 C   0  0  0  0  0  0  0  0  0  0  0  0
    5.7331   11.7620    0.0000 C   0  0  0  0  0  0  0  0  0  0  0  0
    4.0010   10.7620    0.0000 C   0  0  0  0  0  0  0  0  0  0  0  0
    7.5331   11.7828    0.0000 C   0  0  0  0  0  0  0  0  0  0  0  0
    3.1350    9.2620    0.0000 C   0  0  0  0  0  0  0  0  0  0  0  0
    2.2690   10.7620    0.0000 C   0  0  0  0  0  0  0  0  0  0  0  0
    9.2651   11.7895    0.0000 C   0  0  0  0  0  0  0  0  0  0  0  0
    8.3933   13.2861    0.0000 C   0  0  0  0  0  0  0  0  0  0  0  0
    2.2690    8.7620    0.0000 C   0  0  0  0  0  0  0  0  0  0  0  0
    1.4030   10.2620    0.0000 C   0  0  0  0  0  0  0  0  0  0  0  0
   10.1292   12.2928    0.0000 C   0  0  0  0  0  0  0  0  0  0  0  0
    9.2574   13.7895    0.0000 C   0  0  0  0  0  0  0  0  0  0  0  0
    7.0655    2.6200    0.0000 C   0  0  0  0  0  0  0  0  0  0  0  0
    6.1995    2.1200    0.0000 C   0  0  0  0  0  0  0  0  0  0  0  0
    7.9315    2.1200    0.0000 C   0  0  0  0  0  0  0  0  0  0  0  0
    6.1995    1.1200    0.0000 C   0  0  0  0  0  0  0  0  0  0  0  0
    7.9315    1.1200    0.0000 C   0  0  0  0  0  0  0  0  0  0  0  0
    7.0655    0.6200    0.0000 C   0  0  0  0  0  0  0  0  0  0  0  0
    7.0655    3.6200    0.0000 C   0  0  0  0  0  0  0  0  0  0  0  0
    4.4674    2.1200    0.0000 C   0  0  0  0  0  0  0  0  0  0  0  0
    3.6014    2.6200    0.0000 C   0  0  0  0  0  0  0  0  0  0  0  0
    5.9451   13.1794    0.0000 H   0  0  0  0  0  0  0  0  0  0  0  0
    6.3437   13.8697    0.0000 H   0  0  0  0  0  0  0  0  0  0  0  0
    3.3905   13.8697    0.0000 H   0  0  0  0  0  0  0  0  0  0  0  0
    3.7890   13.1794    0.0000 H   0  0  0  0  0  0  0  0  0  0  0  0
    5.5384    9.3225    0.0000 H   0  0  0  0  0  0  0  0  0  0  0  0
    5.1319    8.6369    0.0000 H   0  0  0  0  0  0  0  0  0  0  0  0
    8.0850    8.6027    0.0000 H   0  0  0  0  0  0  0  0  0  0  0  0
    7.6944    9.2975    0.0000 H   0  0  0  0  0  0  0  0  0  0  0  0
    6.3437   14.6543    0.0000 H   0  0  0  0  0  0  0  0  0  0  0  0
    5.9451   15.3446    0.0000 H   0  0  0  0  0  0  0  0  0  0  0  0
    3.7890   15.3446    0.0000 H   0  0  0  0  0  0  0  0  0  0  0  0
    3.3905   14.6543    0.0000 H   0  0  0  0  0  0  0  0  0  0  0  0
    5.1229    7.8522    0.0000 H   0  0  0  0  0  0  0  0  0  0  0  0
    5.5134    7.1574    0.0000 H   0  0  0  0  0  0  0  0  0  0  0  0
    7.6694    7.1325    0.0000 H   0  0  0  0  0  0  0  0  0  0  0  0
    8.0759    7.8181    0.0000 H   0  0  0  0  0  0  0  0  0  0  0  0
    5.2656   15.7369    0.0000 H   0  0  0  0  0  0  0  0  0  0  0  0
    4.4685   15.7369    0.0000 H   0  0  0  0  0  0  0  0  0  0  0  0
    6.1884    6.7572    0.0000 H   0  0  0  0  0  0  0  0  0  0  0  0
    6.9854    6.7480    0.0000 H   0  0  0  0  0  0  0  0  0  0  0  0
    3.3471    8.6794    0.0000 H   0  0  0  0  0  0  0  0  0  0  0  0
    3.7456    9.3697    0.0000 H   0  0  0  0  0  0  0  0  0  0  0  0
    2.6675   11.2369    0.0000 H   0  0  0  0  0  0  0  0  0  0  0  0
    1.8705   11.2369    0.0000 H   0  0  0  0  0  0  0  0  0  0  0  0
    8.8684   11.3130    0.0000 H   0  0  0  0  0  0  0  0  0  0  0  0
    9.6655   11.3161    0.0000 H   0  0  0  0  0  0  0  0  0  0  0  0
    8.1790   13.8679    0.0000 H   0  0  0  0  0  0  0  0  0  0  0  0
    7.7832   13.1761    0.0000 H   0  0  0  0  0  0  0  0  0  0  0  0
    2.0569    9.3446    0.0000 H   0  0  0  0  0  0  0  0  0  0  0  0
    1.6584    8.6543    0.0000 H   0  0  0  0  0  0  0  0  0  0  0  0
    1.0044    9.7870    0.0000 H   0  0  0  0  0  0  0  0  0  0  0  0
    1.8015    9.7870    0.0000 H   0  0  0  0  0  0  0  0  0  0  0  0
   10.5259   12.7693    0.0000 H   0  0  0  0  0  0  0  0  0  0  0  0
    9.7289   12.7662    0.0000 H   0  0  0  0  0  0  0  0  0  0  0  0
    9.4717   13.2077    0.0000 H   0  0  0  0  0  0  0  0  0  0  0  0
    9.8676   13.8995    0.0000 H   0  0  0  0  0  0  0  0  0  0  0  0
    1.7321    7.4520    0.0000 H   0  0  0  0  0  0  0  0  0  0  0  0
    0.0000   10.4520    0.0000 H   0  0  0  0  0  0  0  0  0  0  0  0
   11.5329   12.1082    0.0000 H   0  0  0  0  0  0  0  0  0  0  0  0
    9.7893   15.1015    0.0000 H   0  0  0  0  0  0  0  0  0  0  0  0
    8.4685    2.4300    0.0000 H   0  0  0  0  0  0  0  0  0  0  0  0
    5.6625    0.8100    0.0000 H   0  0  0  0  0  0  0  0  0  0  0  0
    8.4685    0.8100    0.0000 H   0  0  0  0  0  0  0  0  0  0  0  0
    7.0655    0.0000    0.0000 H   0  0  0  0  0  0  0  0  0  0  0  0
    3.9114    3.1569    0.0000 H   0  0  0  0  0  0  0  0  0  0  0  0
    3.0645    2.9300    0.0000 H   0  0  0  0  0  0  0  0  0  0  0  0
    3.2914    2.0831    0.0000 H   0  0  0  0  0  0  0  0  0  0  0  0
    7.9315    4.7400    0.0000 H   0  0  0  0  0  0  0  0  0  0  0  0
  1 37  1  0  0  0  0
  1 86  1  0  0  0  0
  2 38  1  0  0  0  0
  2 87  1  0  0  0  0
  3 39  1  0  0  0  0
  3 88  1  0  0  0  0
  4 40  1  0  0  0  0
  4 89  1  0  0  0  0
  5 42  1  0  0  0  0
  5 48  1  0  0  0  0
  6 47  1  0  0  0  0
  6 97  1  0  0  0  0
  7 47  2  0  0  0  0
  8 48  2  0  0  0  0
  9 17  1  0  0  0  0
  9 18  1  0  0  0  0
  9 27  1  0  0  0  0
 10 19  1  0  0  0  0
 10 20  1  0  0  0  0
 10 28  1  0  0  0  0
 11 27  2  0  0  0  0
 11 31  1  0  0  0  0
 12 28  2  0  0  0  0
 12 32  1  0  0  0  0
 13 29  1  0  0  0  0
 13 31  2  0  0  0  0
 14 30  1  0  0  0  0
 14 32  2  0  0  0  0
 15 31  1  0  0  0  0
 15 33  1  0  0  0  0
 15 34  1  0  0  0  0
 16 32  1  0  0  0  0
 16 35  1  0  0  0  0
 16 36  1  0  0  0  0
 17 21  1  0  0  0  0
 17 50  1  0  0  0  0
 17 51  1  0  0  0  0
 18 22  1  0  0  0  0
 18 52  1  0  0  0  0
 18 53  1  0  0  0  0
 19 23  1  0  0  0  0
 19 54  1  0  0  0  0
 19 55  1  0  0  0  0
 20 24  1  0  0  0  0
 20 56  1  0  0  0  0
 20 57  1  0  0  0  0
 21 25  1  0  0  0  0
 21 58  1  0  0  0  0
 21 59  1  0  0  0  0
 22 25  1  0  0  0  0
 22 60  1  0  0  0  0
 22 61  1  0  0  0  0
 23 26  1  0  0  0  0
 23 62  1  0  0  0  0
 23 63  1  0  0  0  0
 24 26  1  0  0  0  0
 24 64  1  0  0  0  0
 24 65  1  0  0  0  0
 25 66  1  0  0  0  0
 25 67  1  0  0  0  0
 26 68  1  0  0  0  0
 26 69  1  0  0  0  0
 27 30  1  0  0  0  0
 28 29  1  0  0  0  0
 29 30  2  0  0  0  0
 33 37  1  0  0  0  0
 33 70  1  0  0  0  0
 33 71  1  0  0  0  0
 34 38  1  0  0  0  0
 34 72  1  0  0  0  0
 34 73  1  0  0  0  0
 35 39  1  0  0  0  0
 35 74  1  0  0  0  0
 35 75  1  0  0  0  0
 36 40  1  0  0  0  0
 36 76  1  0  0  0  0
 36 77  1  0  0  0  0
 37 78  1  0  0  0  0
 37 79  1  0  0  0  0
 38 80  1  0  0  0  0
 38 81  1  0  0  0  0
 39 82  1  0  0  0  0
 39 83  1  0  0  0  0
 40 84  1  0  0  0  0
 40 85  1  0  0  0  0
 41 42  1  0  0  0  0
 41 43  2  0  0  0  0
 41 47  1  0  0  0  0
 42 44  2  0  0  0  0
 43 45  1  0  0  0  0
 43 90  1  0  0  0  0
 44 46  1  0  0  0  0
 44 91  1  0  0  0  0
 45 46  2  0  0  0  0
 45 92  1  0  0  0  0
 46 93  1  0  0  0  0
 48 49  1  0  0  0  0
 49 94  1  0  0  0  0
 49 95  1  0  0  0  0
 49 96  1  0  0  0  0
M  END
> <PUBCHEM_COMPOUND_CID>
137329

> <PUBCHEM_COMPOUND_CANONICALIZED>
1

> <PUBCHEM_CACTVS_COMPLEXITY>
773

> <PUBCHEM_CACTVS_HBOND_ACCEPTOR>
16

> <PUBCHEM_CACTVS_HBOND_DONOR>
5

> <PUBCHEM_CACTVS_ROTATABLE_BOND>
15

> <PUBCHEM_CACTVS_SUBSKEYS>
AAADcfB//AAAAAAAAAAAAAAAAAAAAAAAAAA8WLFiAAAAAACx/AAAHgAACAAADAzhngYz/rcIFgCoAybybACCiC0lMKAJmCEuXNiOfzbE/duWf2jt4BPY+aeYyCCOAAAAAAAIAAAAAAAAABAAAAAAAAAAAA==

> <PUBCHEM_IUPAC_OPENEYE_NAME>
2-acetoxybenzoic acid;2-[[2-[bis(2-hydroxyethyl)amino]-4,8-bis(1-piperidyl)pyrimido[5,4-d]pyrimidin-6-yl]-(2-hydroxyethyl)amino]ethanol

> <PUBCHEM_IUPAC_CAS_NAME>
2-acetyloxybenzoic acid;2-[[2-[bis(2-hydroxyethyl)amino]-4,8-bis(1-piperidinyl)-6-pyrimido[5,4-d]pyrimidinyl]-(2-hydroxyethyl)amino]ethanol

> <PUBCHEM_IUPAC_NAME_MARKUP>
2-acetyloxybenzoic acid;2-[[2-[bis(2-hydroxyethyl)amino]-4,8-di(piperidin-1-yl)pyrimido[5,4-d]pyrimidin-6-yl]-(2-hydroxyethyl)amino]ethanol

> <PUBCHEM_IUPAC_NAME>
2-acetyloxybenzoic acid;2-[[2-[bis(2-hydroxyethyl)amino]-4,8-di(piperidin-1-yl)pyrimido[5,4-d]pyrimidin-6-yl]-(2-hydroxyethyl)amino]ethanol

> <PUBCHEM_IUPAC_SYSTEMATIC_NAME>
2-acetyloxybenzoic acid;2-[[2-[bis(2-hydroxyethyl)amino]-4,8-di(piperidin-1-yl)pyrimido[5,4-d]pyrimidin-6-yl]-(2-hydroxyethyl)amino]ethanol

> <PUBCHEM_IUPAC_TRADITIONAL_NAME>
2-acetoxybenzoic acid;2-[[2-[bis(2-hydroxyethyl)amino]-4,8-dipiperidino-pyrimido[5,4-d]pyrimidin-6-yl]-(2-hydroxyethyl)amino]ethanol

> <PUBCHEM_IUPAC_INCHI>
InChI=1S/C24H40N8O4.C9H8O4/c33-15-11-31(12-16-34)23-26-20-19(21(27-23)29-7-3-1-4-8-29)25-24(32(13-17-35)14-18-36)28-22(20)30-9-5-2-6-10-30;1-6(10)13-8-5-3-2-4-7(8)9(11)12/h33-36H,1-18H2;2-5H,1H3,(H,11,12)

> <PUBCHEM_IUPAC_INCHIKEY>
NOHUXXDTQJPXSB-UHFFFAOYSA-N

> <PUBCHEM_EXACT_MASS>
684.35951052

> <PUBCHEM_MOLECULAR_FORMULA>
C33H48N8O8

> <PUBCHEM_MOLECULAR_WEIGHT>
684.8

> <PUBCHEM_OPENEYE_CAN_SMILES>
CC(=O)OC1=CC=CC=C1C(=O)O.C1CCN(CC1)C2=NC(=NC3=C2N=C(N=C3N4CCCCC4)N(CCO)CCO)N(CCO)CCO

> <PUBCHEM_OPENEYE_ISO_SMILES>
CC(=O)OC1=CC=CC=C1C(=O)O.C1CCN(CC1)C2=NC(=NC3=C2N=C(N=C3N4CCCCC4)N(CCO)CCO)N(CCO)CCO

> <PUBCHEM_CACTVS_TPSA>
209

> <PUBCHEM_MONOISOTOPIC_WEIGHT>
684.35951052

> <PUBCHEM_TOTAL_CHARGE>
0

> <PUBCHEM_HEAVY_ATOM_COUNT>
49

> <PUBCHEM_ATOM_DEF_STEREO_COUNT>
0

> <PUBCHEM_ATOM_UDEF_STEREO_COUNT>
0

> <PUBCHEM_BOND_DEF_STEREO_COUNT>
0

> <PUBCHEM_BOND_UDEF_STEREO_COUNT>
0

> <PUBCHEM_ISOTOPIC_ATOM_COUNT>
0

> <PUBCHEM_COMPONENT_COUNT>
2

> <PUBCHEM_CACTVS_TAUTO_COUNT>
-1

> <PUBCHEM_COORDINATE_TYPE>
1
5
255

> <PUBCHEM_BONDANNOTATIONS>
11  27  8
11  31  8
12  28  8
12  32  8
13  29  8
13  31  8
14  30  8
14  32  8
27  30  8
28  29  8
29  30  8
41  42  8
41  43  8
42  44  8
43  45  8
44  46  8
45  46  8

$$$$
9871508
  -OEChem-06292504332D

 65 66  0     0  0  0  0  0  0999 V2000
    2.2690    8.7221    0.0000 O   0  0  0  0  0  0  0  0  0  0  0  0
    0.5369    5.7221    0.0000 O   0  0  0  0  0  0  0  0  0  0  0  0
    9.5526    2.6200    0.0000 O   0  0  0  0  0  0  0  0  0  0  0  0
    9.8211    7.0488    0.0000 O   0  0  0  0  0  0  0  0  0  0  0  0
   12.1507    4.1200    0.0000 O   0  0  0  0  0  0  0  0  0  0  0  0
   10.4186    4.1200    0.0000 O   0  0  0  0  0  0  0  0  0  0  0  0
   11.5531   11.0488    0.0000 O   0  0  0  0  0  0  0  0  0  0  0  0
    8.6866    1.1200    0.0000 O   0  0  0  0  0  0  0  0  0  0  0  0
    2.2690    5.7221    0.0000 N   0  0  0  0  0  0  0  0  0  0  0  0
    4.0812    7.5268    0.0000 N   0  0  0  0  0  0  0  0  0  0  0  0
    1.4030    7.2221    0.0000 N   0  0  0  0  0  0  0  0  0  0  0  0
    4.0812    5.9174    0.0000 N   0  0  0  0  0  0  0  0  0  0  0  0
    9.8211   11.0488    0.0000 N   0  0  0  0  0  0  0  0  0  0  0  0
    3.1350    7.2221    0.0000 C   0  0  0  0  0  0  0  0  0  0  0  0
    3.1350    6.2221    0.0000 C   0  0  0  0  0  0  0  0  0  0  0  0
    2.2690    7.7221    0.0000 C   0  0  0  0  0  0  0  0  0  0  0  0
    1.4030    6.2221    0.0000 C   0  0  0  0  0  0  0  0  0  0  0  0
    4.6648    6.7221    0.0000 C   0  0  0  0  0  0  0  0  0  0  0  0
    2.2690    4.7221    0.0000 C   0  0  0  0  0  0  0  0  0  0  0  0
    4.3919    8.4774    0.0000 C   0  0  0  0  0  0  0  0  0  0  0  0
    0.5369    7.7221    0.0000 C   0  0  0  0  0  0  0  0  0  0  0  0
    9.8211   10.0488    0.0000 C   0  0  0  0  0  0  0  0  0  0  0  0
   11.2847    2.6200    0.0000 C   0  0  0  0  0  0  0  0  0  0  0  0
   10.4186    2.1200    0.0000 C   0  0  0  0  0  0  0  0  0  0  0  0
   10.6871    9.5488    0.0000 C   0  0  0  0  0  0  0  0  0  0  0  0
    8.9551    9.5488    0.0000 C   0  0  0  0  0  0  0  0  0  0  0  0
   12.1507    2.1200    0.0000 C   0  0  0  0  0  0  0  0  0  0  0  0
   10.4186    1.1200    0.0000 C   0  0  0  0  0  0  0  0  0  0  0  0
   10.6871    8.5488    0.0000 C   0  0  0  0  0  0  0  0  0  0  0  0
    8.9551    8.5488    0.0000 C   0  0  0  0  0  0  0  0  0  0  0  0
    9.8211    8.0488    0.0000 C   0  0  0  0  0  0  0  0  0  0  0  0
   12.1507    1.1200    0.0000 C   0  0  0  0  0  0  0  0  0  0  0  0
   11.2847    0.6200    0.0000 C   0  0  0  0  0  0  0  0  0  0  0  0
   10.6871   11.5488    0.0000 C   0  0  0  0  0  0  0  0  0  0  0  0
   11.2847    3.6200    0.0000 C   0  0  0  0  0  0  0  0  0  0  0  0
   10.6871   12.5488    0.0000 C   0  0  0  0  0  0  0  0  0  0  0  0
    8.6866    2.1200    0.0000 C   0  0  0  0  0  0  0  0  0  0  0  0
    7.8206    2.6200    0.0000 C   0  0  0  0  0  0  0  0  0  0  0  0
    5.2848    6.7221    0.0000 H   0  0  0  0  0  0  0  0  0  0  0  0
    1.6490    4.7221    0.0000 H   0  0  0  0  0  0  0  0  0  0  0  0
    2.2690    4.1021    0.0000 H   0  0  0  0  0  0  0  0  0  0  0  0
    2.8890    4.7221    0.0000 H   0  0  0  0  0  0  0  0  0  0  0  0
    4.9812    8.2848    0.0000 H   0  0  0  0  0  0  0  0  0  0  0  0
    4.5845    9.0667    0.0000 H   0  0  0  0  0  0  0  0  0  0  0  0
    3.8026    8.6700    0.0000 H   0  0  0  0  0  0  0  0  0  0  0  0
    0.8469    8.2590    0.0000 H   0  0  0  0  0  0  0  0  0  0  0  0
    0.0000    8.0321    0.0000 H   0  0  0  0  0  0  0  0  0  0  0  0
    0.2269    7.1852    0.0000 H   0  0  0  0  0  0  0  0  0  0  0  0
   11.2240    9.8588    0.0000 H   0  0  0  0  0  0  0  0  0  0  0  0
    8.4181    9.8588    0.0000 H   0  0  0  0  0  0  0  0  0  0  0  0
   12.6876    2.4300    0.0000 H   0  0  0  0  0  0  0  0  0  0  0  0
    9.8817    0.8100    0.0000 H   0  0  0  0  0  0  0  0  0  0  0  0
   11.2240    8.2388    0.0000 H   0  0  0  0  0  0  0  0  0  0  0  0
    8.4181    8.2388    0.0000 H   0  0  0  0  0  0  0  0  0  0  0  0
    9.2842   11.3588    0.0000 H   0  0  0  0  0  0  0  0  0  0  0  0
   12.6876    0.8100    0.0000 H   0  0  0  0  0  0  0  0  0  0  0  0
   11.2847    0.0000    0.0000 H   0  0  0  0  0  0  0  0  0  0  0  0
   11.3071   12.5488    0.0000 H   0  0  0  0  0  0  0  0  0  0  0  0
   10.6871   13.1688    0.0000 H   0  0  0  0  0  0  0  0  0  0  0  0
   10.0671   12.5488    0.0000 H   0  0  0  0  0  0  0  0  0  0  0  0
    9.2842    6.7388    0.0000 H   0  0  0  0  0  0  0  0  0  0  0  0
    8.1306    3.1569    0.0000 H   0  0  0  0  0  0  0  0  0  0  0  0
    7.2836    2.9300    0.0000 H   0  0  0  0  0  0  0  0  0  0  0  0
    7.5106    2.0831    0.0000 H   0  0  0  0  0  0  0  0  0  0  0  0
   12.1507    4.7400    0.0000 H   0  0  0  0  0  0  0  0  0  0  0  0
  1 16  2  0  0  0  0
  2 17  2  0  0  0  0
  3 24  1  0  0  0  0
  3 37  1  0  0  0  0
  4 31  1  0  0  0  0
  4 61  1  0  0  0  0
  5 35  1  0  0  0  0
  5 65  1  0  0  0  0
  6 35  2  0  0  0  0
  7 34  2  0  0  0  0
  8 37  2  0  0  0  0
  9 15  1  0  0  0  0
  9 17  1  0  0  0  0
  9 19  1  0  0  0  0
 10 14  1  0  0  0  0
 10 18  1  0  0  0  0
 10 20  1  0  0  0  0
 11 16  1  0  0  0  0
 11 17  1  0  0  0  0
 11 21  1  0  0  0  0
 12 15  1  0  0  0  0
 12 18  2  0  0  0  0
 13 22  1  0  0  0  0
 13 34  1  0  0  0  0
 13 55  1  0  0  0  0
 14 15  2  0  0  0  0
 14 16  1  0  0  0  0
 18 39  1  0  0  0  0
 19 40  1  0  0  0  0
 19 41  1  0  0  0  0
 19 42  1  0  0  0  0
 20 43  1  0  0  0  0
 20 44  1  0  0  0  0
 20 45  1  0  0  0  0
 21 46  1  0  0  0  0
 21 47  1  0  0  0  0
 21 48  1  0  0  0  0
 22 25  2  0  0  0  0
 22 26  1  0  0  0  0
 23 24  1  0  0  0  0
 23 27  2  0  0  0  0
 23 35  1  0  0  0  0
 24 28  2  0  0  0  0
 25 29  1  0  0  0  0
 25 49  1  0  0  0  0
 26 30  2  0  0  0  0
 26 50  1  0  0  0  0
 27 32  1  0  0  0  0
 27 51  1  0  0  0  0
 28 33  1  0  0  0  0
 28 52  1  0  0  0  0
 29 31  2  0  0  0  0
 29 53  1  0  0  0  0
 30 31  1  0  0  0  0
 30 54  1  0  0  0  0
 32 33  2  0  0  0  0
 32 56  1  0  0  0  0
 33 57  1  0  0  0  0
 34 36  1  0  0  0  0
 36 58  1  0  0  0  0
 36 59  1  0  0  0  0
 36 60  1  0  0  0  0
 37 38  1  0  0  0  0
 38 62  1  0  0  0  0
 38 63  1  0  0  0  0
 38 64  1  0  0  0  0
M  END
> <PUBCHEM_COMPOUND_CID>
9871508

> <PUBCHEM_COMPOUND_CANONICALIZED>
1

> <PUBCHEM_CACTVS_COMPLEXITY>
644

> <PUBCHEM_CACTVS_HBOND_ACCEPTOR>
9

> <PUBCHEM_CACTVS_HBOND_DONOR>
3

> <PUBCHEM_CACTVS_ROTATABLE_BOND>
4

> <PUBCHEM_CACTVS_SUBSKEYS>
AAADceB7vAAAAAAAAAAAAAAAAAAAAWAAAAA8YIAAAAAAAFgB0AAAHgAQCAAADAyBngQ3/pfMFgCoAyfzfACCiC03MqAJ2AGufMiMbz7G/buWe+jt9zPI+ee4yCCOAEAAAAAIAAAAgAAAABAAAAAAAAAAAA==

> <PUBCHEM_IUPAC_OPENEYE_NAME>
2-acetoxybenzoic acid;N-(4-hydroxyphenyl)acetamide;1,3,7-trimethylpurine-2,6-dione

> <PUBCHEM_IUPAC_CAS_NAME>
2-acetyloxybenzoic acid;N-(4-hydroxyphenyl)acetamide;1,3,7-trimethylpurine-2,6-dione

> <PUBCHEM_IUPAC_NAME_MARKUP>
2-acetyloxybenzoic acid;<I>N</I>-(4-hydroxyphenyl)acetamide;1,3,7-trimethylpurine-2,6-dione

> <PUBCHEM_IUPAC_NAME>
2-acetyloxybenzoic acid;N-(4-hydroxyphenyl)acetamide;1,3,7-trimethylpurine-2,6-dione

> <PUBCHEM_IUPAC_SYSTEMATIC_NAME>
2-acetyloxybenzoic acid;N-(4-hydroxyphenyl)ethanamide;1,3,7-trimethylpurine-2,6-dione

> <PUBCHEM_IUPAC_TRADITIONAL_NAME>
2-acetoxybenzoic acid;caffeine;N-(4-hydroxyphenyl)acetamide

> <PUBCHEM_IUPAC_INCHI>
InChI=1S/C9H8O4.C8H10N4O2.C8H9NO2/c1-6(10)13-8-5-3-2-4-7(8)9(11)12;1-10-4-9-6-5(10)7(13)12(3)8(14)11(6)2;1-6(10)9-7-2-4-8(11)5-3-7/h2-5H,1H3,(H,11,12);4H,1-3H3;2-5,11H,1H3,(H,9,10)

> <PUBCHEM_IUPAC_INCHIKEY>
BKMBGNWZSQNIKU-UHFFFAOYSA-N

> <PUBCHEM_EXACT_MASS>
525.18596284

> <PUBCHEM_MOLECULAR_FORMULA>
C25H27N5O8

> <PUBCHEM_MOLECULAR_WEIGHT>
525.5

> <PUBCHEM_OPENEYE_CAN_SMILES>
CC(=O)NC1=CC=C(C=C1)O.CC(=O)OC1=CC=CC=C1C(=O)O.CN1C=NC2=C1C(=O)N(C(=O)N2C)C

> <PUBCHEM_OPENEYE_ISO_SMILES>
CC(=O)NC1=CC=C(C=C1)O.CC(=O)OC1=CC=CC=C1C(=O)O.CN1C=NC2=C1C(=O)N(C(=O)N2C)C

> <PUBCHEM_CACTVS_TPSA>
171

> <PUBCHEM_MONOISOTOPIC_WEIGHT>
525.18596284

> <PUBCHEM_TOTAL_CHARGE>
0

> <PUBCHEM_HEAVY_ATOM_COUNT>
38

> <PUBCHEM_ATOM_DEF_STEREO_COUNT>
0

> <PUBCHEM_ATOM_UDEF_STEREO_COUNT>
0

> <PUBCHEM_BOND_DEF_STEREO_COUNT>
0

> <PUBCHEM_BOND_UDEF_STEREO_COUNT>
0

> <PUBCHEM_ISOTOPIC_ATOM_COUNT>
0

> <PUBCHEM_COMPONENT_COUNT>
3

> <PUBCHEM_CACTVS_TAUTO_COUNT>
-1

> <PUBCHEM_COORDINATE_TYPE>
1
5
255

> <PUBCHEM_BONDANNOTATIONS>
10  14  8
10  18  8
11  16  8
11  17  8
12  15  8
12  18  8
14  15  8
14  16  8
22  25  8
22  26  8
23  24  8
23  27  8
24  28  8
25  29  8
26  30  8
27  32  8
28  33  8
29  31  8
30  31  8
32  33  8
9  15  8
9  17  8

$$$$
